/*--------------------------------*- C++ -*----------------------------------*\
| =========                 |                                                 |
| \\      /  F ield         | OpenFOAM: The Open Source CFD Toolbox           |
|  \\    /   O peration     | Version:  2.3.0                                 |
|   \\  /    A nd           | Web:      www.OpenFOAM.org                      |
|    \\/     M anipulation  |                                                 |
\*---------------------------------------------------------------------------*/
FoamFile
{
    version     2.0;
    format      ascii;
    class       dictionary;
    object      blockMeshDict;
}
// * * * * * * * * * * * * * * * * * * * * * * * * * * * * * * * * * * * * * //

convertToMeters 30;

vertices
(
    (-1 -1 -1)
    ( 1 -1 -1)
    ( 1  1 -1)
    (-1  1 -1)
    (-1 -1  1)
    ( 1 -1  1)
    ( 1  1  1)
    (-1  1  1)
);

blocks
(
    hex (0 1 2 3 4 5 6 7) (30 30 30) simpleGrading (1 1 1)
);

edges
(
);

boundary
(
    in
    {
        type patch;
        faces
        (
            (0 4 7 3)
        );
    }
    out
    {
        type patch;
        faces
        (
            (2 6 5 1)
        );
    }
    top
    {
        type patch;
        faces
        (
            (3 7 6 2)
        );
    }
    bottom
    {
        type patch;
        faces
        (
            (1 5 4 0)
        )
    }
    back
    {
        type wall;
        faces
        (
            (0 3 2 1)
        );
    }
    front
    {
        type wall;
        faces
        (
            (4 5 6 7)
        );
    }
);

mergePatchPairs
(
);

// ************************************************************************* //
