/*--------------------------------*- C++ -*----------------------------------*\
| =========                 |                                                 |
| \\      /  F ield         | OpenFOAM: The Open Source CFD Toolbox           |
|  \\    /   O peration     | Version:  2.3.x                                 |
|   \\  /    A nd           | Web:      www.OpenFOAM.org                      |
|    \\/     M anipulation  |                                                 |
\*---------------------------------------------------------------------------*/
FoamFile
{
    version     2.0;
    format      ascii;
    class       dictionary;
    location    "system";
    object      fvSchemes;
}
// * * * * * * * * * * * * * * * * * * * * * * * * * * * * * * * * * * * * * //

ddtSchemes
{
    default backward;
}

gradSchemes
{
    default         leastSquares;
    grad(p)         Gauss skewCorrected linear;
}

divSchemes
{
    default         none;
    div(phi,U)      Gauss GammaVDC 0.5;
}

laplacianSchemes
{
    default         none;
    laplacian(nu,U) Gauss linear corrected;
    laplacian((1|A(U)),p) Gauss linear corrected;
}

interpolationSchemes
{
    default none;
    interpolate(U) skewCorrected linear;
    interpolate((1|A(U))) linear;
    interpolate(p) linear;
}

snGradSchemes
{
    default none;
}

fluxRequired
{
    p;
}

// ************************************************************************* //
