/*--------------------------------*- C++ -*----------------------------------*\
| =========                 |                                                 |
| \\      /  F ield         | OpenFOAM: The Open Source CFD Toolbox           |
|  \\    /   O peration     | Version:  2.3.x                                 |
|   \\  /    A nd           | Web:      www.OpenFOAM.org                      |
|    \\/     M anipulation  |                                                 |
\*---------------------------------------------------------------------------*/
FoamFile
{
    version     2.0;
    format      ascii;
    class       dictionary;
    location    "system";
    object      fvSolution;
}
// * * * * * * * * * * * * * * * * * * * * * * * * * * * * * * * * * * * * * //

solvers
{
    p
    {
        solver           PCG;
        preconditioner   DIC;

        minIter          1;
        maxIter          1000;
        tolerance        1e-07;
        relTol           0;
    };

//     p
//     {
//         solver          GAMG;
//         tolerance       1e-08;
//         relTol          0;
//         minIter 1;
//         smoother        GaussSeidel;
//         cacheAgglomeration true;
//         nCellsInCoarsestLevel 10;
//         agglomerator    faceAreaPair;
//         mergeLevels     1;
//     }

    U
    {
        solver           PBiCG;
        preconditioner   DILU;

        minIter          1;
        maxIter          1000;
        tolerance        1e-08;
        relTol           0;
    };
}

PIMPLE
{
    nOuterCorrectors 1;
    nCorrectors     3;
    nNonOrthogonalCorrectors 1;

    pRefPoint (0 -0.45 0.05);
    pRefValue 0;
}

// ************************************************************************* //
